Version 4.1
SHEET 1 880 680
WIRE 64 64 -32 64
WIRE 224 64 64 64
WIRE 496 64 352 64
WIRE 640 64 496 64
WIRE -32 80 -32 64
WIRE 352 80 352 64
WIRE 496 128 496 64
WIRE 528 128 496 128
WIRE 64 144 64 64
WIRE 128 144 64 144
WIRE 640 144 640 64
WIRE 640 144 592 144
WIRE 224 160 224 64
WIRE 224 160 192 160
WIRE 256 160 224 160
WIRE 352 160 352 144
WIRE 352 160 336 160
WIRE 384 160 352 160
WIRE 496 160 464 160
WIRE 528 160 496 160
WIRE -112 176 -208 176
WIRE -32 176 -32 160
WIRE -32 176 -48 176
WIRE -16 176 -32 176
WIRE 64 176 48 176
WIRE 128 176 64 176
WIRE 496 176 496 160
WIRE 64 192 64 176
WIRE 496 256 496 240
WIRE 64 288 64 272
FLAG 640 144 out
IOPIN 640 144 Out
FLAG 64 288 gnd
IOPIN 64 288 BiDir
FLAG 496 256 gnd
IOPIN 496 256 BiDir
FLAG 160 128 V+
IOPIN 160 128 BiDir
FLAG 560 112 V+
IOPIN 560 112 BiDir
FLAG 160 192 V-
IOPIN 160 192 BiDir
FLAG 560 176 V-
IOPIN 560 176 BiDir
FLAG -208 176 in
IOPIN -208 176 In
SYMBOL OpAmps\\OP27 160 96 R0
SYMATTR InstName U1
SYMBOL res 48 176 R0
SYMATTR InstName R1
SYMBOL cap -16 192 R270
WINDOW 0 32 32 VTop 2
WINDOW 3 0 32 VBottom 2
SYMATTR InstName C1
SYMBOL cap -112 192 R270
WINDOW 0 32 32 VTop 2
WINDOW 3 0 32 VBottom 2
SYMATTR InstName C2
SYMBOL res -16 176 R180
WINDOW 0 36 76 Left 2
WINDOW 3 36 40 Left 2
SYMATTR InstName R2
SYMBOL res 240 176 R270
WINDOW 0 32 56 VTop 2
WINDOW 3 0 56 VBottom 2
SYMATTR InstName R3
SYMBOL cap 368 144 R180
WINDOW 0 24 56 Left 2
WINDOW 3 24 8 Left 2
SYMATTR InstName C3
SYMBOL res 368 176 R270
WINDOW 0 32 56 VTop 2
WINDOW 3 0 56 VBottom 2
SYMATTR InstName R4
SYMBOL cap 480 176 R0
SYMATTR InstName C4
SYMBOL OpAmps\\OP27 560 80 R0
SYMATTR InstName U2
