Version 4.1
SHEET 1 880 680
WIRE 448 48 352 48
WIRE 608 48 448 48
WIRE 352 64 352 48
WIRE -224 80 -240 80
WIRE 128 80 -16 80
WIRE 272 80 128 80
WIRE -16 96 -16 80
WIRE 448 128 448 48
WIRE 512 128 448 128
WIRE 128 144 128 80
WIRE 160 144 128 144
WIRE 608 144 608 48
WIRE 608 144 576 144
WIRE 640 144 608 144
WIRE -240 160 -240 80
WIRE -224 160 -240 160
WIRE 272 160 272 80
WIRE 272 160 224 160
WIRE 352 160 352 144
WIRE 352 160 336 160
WIRE 368 160 352 160
WIRE 448 160 432 160
WIRE 512 160 448 160
WIRE -144 176 -144 80
WIRE -144 176 -160 176
WIRE -112 176 -144 176
WIRE -16 176 -16 160
WIRE -16 176 -32 176
WIRE 16 176 -16 176
WIRE 128 176 96 176
WIRE 160 176 128 176
WIRE 448 176 448 160
WIRE -224 192 -240 192
WIRE 128 192 128 176
WIRE -240 224 -240 192
WIRE -240 224 -272 224
WIRE 128 272 128 256
WIRE 448 272 448 256
FLAG 640 144 out
IOPIN 640 144 Out
FLAG 448 272 gnd
IOPIN 448 272 BiDir
FLAG 128 272 gnd
IOPIN 128 272 BiDir
FLAG 544 112 V+
IOPIN 544 112 BiDir
FLAG 192 128 V+
IOPIN 192 128 BiDir
FLAG 544 176 V-
IOPIN 544 176 BiDir
FLAG 192 192 V-
IOPIN 192 192 BiDir
FLAG -272 224 in
IOPIN -272 224 In
FLAG -320 160 0
SYMBOL OpAmps\\OP27 544 80 R0
SYMATTR InstName U1
SYMBOL res 432 160 R0
SYMATTR InstName R1
SYMATTR Value 10k
SYMBOL cap 368 176 R270
WINDOW 0 32 32 VTop 2
WINDOW 3 0 32 VBottom 2
SYMATTR InstName C_1
SYMATTR Value 1n
SYMBOL cap 272 176 R270
WINDOW 0 32 32 VTop 2
WINDOW 3 0 32 VBottom 2
SYMATTR InstName C_2
SYMATTR Value 1n
SYMBOL res 368 160 R180
WINDOW 0 36 76 Left 2
WINDOW 3 36 40 Left 2
SYMATTR InstName R2
SYMATTR Value 100k
SYMBOL res -128 192 R270
WINDOW 0 32 56 VTop 2
WINDOW 3 0 56 VBottom 2
SYMATTR InstName R3
SYMATTR Value 10k
SYMBOL cap 0 160 R180
WINDOW 0 24 56 Left 2
WINDOW 3 24 8 Left 2
SYMATTR InstName C3
SYMATTR Value 204p
SYMBOL res 0 192 R270
WINDOW 0 32 56 VTop 2
WINDOW 3 0 56 VBottom 2
SYMATTR InstName R4
SYMATTR Value 10k
SYMBOL cap 112 192 R0
SYMATTR InstName C4
SYMATTR Value 103p
SYMBOL OpAmps\\OP27 192 96 R0
SYMATTR InstName U2
SYMBOL OpAmps\\OP27 -192 112 R0
SYMATTR InstName U3
SYMBOL res -240 96 R270
WINDOW 0 32 56 VTop 2
WINDOW 3 0 56 VBottom 2
SYMATTR InstName R5
SYMATTR Value 4k
SYMBOL res -336 176 R270
WINDOW 0 32 56 VTop 2
WINDOW 3 0 56 VBottom 2
SYMATTR InstName R6
SYMATTR Value 1k
TEXT 88 40 Left 6 ;LPF
TEXT 432 8 Left 6 ;HPF
TEXT -120 232 Left 2 !.ac dec 10 1k 10Meg
