Version 4.1
SHEET 1 880 680
WIRE 272 80 160 80
WIRE 160 144 160 80
WIRE 176 144 160 144
WIRE 272 160 272 80
WIRE 272 160 240 160
WIRE 288 160 272 160
WIRE 176 176 144 176
FLAG 288 160 out
IOPIN 288 160 Out
FLAG 144 176 in
IOPIN 144 176 In
FLAG 208 128 V+
IOPIN 208 128 BiDir
FLAG 208 192 V-
IOPIN 208 192 BiDir
SYMBOL OpAmps\\OP27 208 96 R0
SYMATTR InstName U1
