Version 4.1
SHEET 1 1216 680
WIRE 848 -176 672 -176
WIRE 608 -96 592 -96
WIRE 672 -96 672 -176
WIRE 704 -96 672 -96
WIRE 848 -80 848 -176
WIRE 848 -80 768 -80
WIRE 1088 -80 848 -80
WIRE 704 -64 592 -64
WIRE 480 -48 368 -48
WIRE 608 -32 592 -32
WIRE 176 -16 160 -16
WIRE 416 -16 368 -16
WIRE 608 0 592 0
WIRE 176 16 96 16
WIRE 384 16 368 16
WIRE 384 48 368 48
WIRE 160 96 160 -16
WIRE 304 96 160 96
WIRE 304 176 304 96
WIRE 304 176 272 176
WIRE 304 208 272 208
WIRE 304 240 272 240
WIRE 304 272 272 272
WIRE 304 288 304 272
FLAG 304 288 0
FLAG 304 240 V-
FLAG 304 208 V+
FLAG 416 -16 0
FLAG 384 16 V+
FLAG 384 48 V-
FLAG 736 -48 V-
FLAG 736 -112 V+
FLAG 608 -96 0
FLAG 608 -32 V+
FLAG 608 0 V-
FLAG 96 16 Vin
SYMBOL oscillator_block 224 224 R0
SYMATTR InstName Oscillator
SYMBOL switching_modulator 272 0 R0
WINDOW 0 0 -79 Bottom 2
SYMATTR InstName Switching_Modulator
SYMBOL OpAmps\\OP27 736 -144 R0
SYMATTR InstName U1
SYMBOL envelope_detector 1136 -80 R0
SYMATTR InstName Envelope_Detector
SYMBOL bandpass 528 -48 R0
SYMATTR InstName Bandpass
TEXT 688 -16 Left 2 ;Buffer Amplifier
TEXT 848 -48 Left 2 ;BNC Cable (Eventually Antenna)
