Version 4.1
SHEET 1 1824 680
WIRE 1584 -144 1568 -144
WIRE 1408 -128 1392 -128
WIRE 1264 -112 1216 -112
WIRE 1584 -112 1568 -112
WIRE 544 -96 528 -96
WIRE 1456 -96 1392 -96
WIRE 800 -80 704 -80
WIRE 960 -80 880 -80
WIRE 1104 -80 1072 -80
WIRE 1232 -80 1216 -80
WIRE 1264 -80 1264 -112
WIRE 1280 -80 1264 -80
WIRE 1584 -80 1568 -80
WIRE 576 -64 528 -64
WIRE 1408 -64 1392 -64
WIRE 416 -48 368 -48
WIRE 576 -48 576 -64
WIRE 592 -48 576 -48
WIRE 720 -48 704 -48
WIRE 1232 -48 1216 -48
WIRE 1584 -48 1568 -48
WIRE 544 -32 528 -32
WIRE 1408 -32 1392 -32
WIRE 176 -16 160 -16
WIRE 384 -16 368 -16
WIRE 720 -16 704 -16
WIRE 544 0 528 0
WIRE 96 16 -64 16
WIRE 176 16 96 16
WIRE 384 16 368 16
WIRE -64 32 -64 16
WIRE 384 48 368 48
WIRE 160 80 160 -16
WIRE 288 80 160 80
WIRE 288 128 288 80
WIRE 288 128 272 128
WIRE 288 160 272 160
WIRE 288 192 272 192
WIRE 288 224 272 224
FLAG 288 192 V-
FLAG 288 160 V+
FLAG 384 -16 0
FLAG 384 16 V+
FLAG 384 48 V-
FLAG 544 -96 0
FLAG 544 -32 V+
FLAG 544 0 V-
FLAG 96 16 Vin
FLAG 1408 -128 0
FLAG 1584 -144 0
FLAG 1408 -32 V-
FLAG 1584 -48 V-
FLAG 1408 -64 V+
FLAG 1584 -80 V+
FLAG 288 224 0
FLAG 1584 -112 Vout
FLAG 720 -16 V-
FLAG 720 -48 V+
FLAG 592 112 V-
FLAG 528 112 V+
FLAG 528 192 0
FLAG 592 192 0
FLAG -64 272 0
FLAG 1232 -48 V-
FLAG 1232 -80 V+
SYMBOL oscillator_block 224 176 R0
SYMATTR InstName Oscillator
SYMBOL switching_modulator 272 0 R0
WINDOW 0 0 -79 Bottom 2
SYMATTR InstName Switching_Modulator
SYMBOL voltage 528 96 R0
SYMATTR InstName V1
SYMATTR Value 12V
SYMBOL voltage 592 96 R0
SYMATTR InstName V2
SYMATTR Value -12V
SYMBOL voltage -64 176 R0
WINDOW 3 36 66 Left 2
WINDOW 123 0 0 Left 0
WINDOW 39 0 0 Left 0
SYMATTR Value SINE(0 30m 1k 0 0 0 0)
SYMATTR InstName V3
SYMBOL bandpass 464 -48 R0
SYMATTR InstName Bandpass
SYMBOL buffer_amplifier 640 -48 R0
SYMATTR InstName Buffer_Amplifier
SYMBOL envelope_detector 1008 -80 R0
SYMATTR InstName Envelope_Detector
SYMBOL power_transformer 1504 -96 R0
SYMATTR InstName Power_Transformer
SYMBOL bandpass2 1328 -80 R0
SYMATTR InstName Bandpass2
SYMBOL res 784 -64 R270
WINDOW 0 32 56 VTop 2
WINDOW 3 0 56 VBottom 2
SYMATTR InstName R1
SYMATTR Value 50
SYMBOL buffer_amplifier 1152 -80 R0
SYMATTR InstName Buffer_Amplifier1
SYMBOL voltage -64 16 R0
SYMATTR InstName V4
SYMATTR Value SINE(0 30m 4k 0 0 0 0)
SYMBOL voltage -64 96 R0
SYMATTR InstName V5
SYMATTR Value SINE(0 30m 300 0 0 0 0)
TEXT 800 -128 Left 2 ;BNC Cable
TEXT 1048 -240 Left 7 ;Reciever
TEXT 248 -192 Left 7 ;Transmitter
TEXT 768 -40 Left 2 ;(Eventually Antenna)
TEXT 472 240 Left 2 !.tran 0 20m 18m 100u
