Version 4.1
SHEET 1 880 680
WIRE 624 -160 448 -160
WIRE 448 -80 448 -160
WIRE 480 -80 448 -80
WIRE 624 -64 624 -160
WIRE 624 -64 544 -64
WIRE 480 -48 368 -48
WIRE 176 -16 160 -16
WIRE 416 -16 368 -16
WIRE 176 16 -80 16
WIRE 384 16 368 16
WIRE 384 48 368 48
WIRE 160 96 160 -16
WIRE 304 96 160 96
WIRE 304 176 304 96
WIRE 304 176 272 176
WIRE 304 208 272 208
WIRE 304 240 272 240
WIRE 304 272 272 272
WIRE 304 288 304 272
FLAG 304 288 0
FLAG 304 240 V-
FLAG 304 208 V+
FLAG 416 -16 0
FLAG 384 16 V+
FLAG 384 48 V-
FLAG 512 -32 V-
FLAG 512 -96 V+
SYMBOL oscillator_block 224 224 R0
SYMATTR InstName Oscillator
SYMBOL switching_modulator 272 0 R0
WINDOW 0 0 -79 Bottom 2
SYMATTR InstName Switching_Modulator_+_Bandpass
SYMBOL OpAmps\\OP27 512 -128 R0
SYMATTR InstName U1
TEXT 464 0 Left 2 ;Buffer Amplifier
