Version 4.1
SHEET 1 1572 680
WIRE 1408 -144 1392 -144
WIRE 1232 -128 1216 -128
WIRE 1440 -112 1392 -112
WIRE 544 -96 528 -96
WIRE 1280 -96 1216 -96
WIRE 960 -80 704 -80
WIRE 1104 -80 1072 -80
WIRE 1408 -80 1392 -80
WIRE 576 -64 528 -64
WIRE 1232 -64 1216 -64
WIRE 416 -48 368 -48
WIRE 576 -48 576 -64
WIRE 592 -48 576 -48
WIRE 720 -48 704 -48
WIRE 1408 -48 1392 -48
WIRE 544 -32 528 -32
WIRE 1232 -32 1216 -32
WIRE 176 -16 160 -16
WIRE 384 -16 368 -16
WIRE 720 -16 704 -16
WIRE 544 0 528 0
WIRE 96 16 -64 16
WIRE 176 16 96 16
WIRE 384 16 368 16
WIRE -64 32 -64 16
WIRE 384 48 368 48
WIRE 160 80 160 -16
WIRE 288 80 160 80
WIRE 288 128 288 80
WIRE 288 128 272 128
WIRE 288 160 272 160
WIRE 288 192 272 192
WIRE 288 224 272 224
FLAG 288 192 V-
FLAG 288 160 V+
FLAG 384 -16 0
FLAG 384 16 V+
FLAG 384 48 V-
FLAG 544 -96 0
FLAG 544 -32 V+
FLAG 544 0 V-
FLAG 96 16 Vin
FLAG 1232 -128 0
FLAG 1408 -144 0
FLAG 1232 -32 V-
FLAG 1408 -48 V-
FLAG 1232 -64 V+
FLAG 1408 -80 V+
FLAG 288 224 0
FLAG 1440 -112 Vout
FLAG 720 -16 V-
FLAG 720 -48 V+
FLAG 592 112 V-
FLAG 528 112 V+
FLAG 528 192 0
FLAG 592 192 0
FLAG -64 112 0
SYMBOL oscillator_block 224 176 R0
SYMATTR InstName Oscillator
SYMBOL switching_modulator 272 0 R0
WINDOW 0 0 -79 Bottom 2
SYMATTR InstName Switching_Modulator
SYMBOL voltage 528 96 R0
SYMATTR InstName V1
SYMATTR Value 12V
SYMBOL voltage 592 96 R0
SYMATTR InstName V2
SYMATTR Value -12V
SYMBOL voltage -64 16 R0
WINDOW 3 36 66 Left 2
SYMATTR InstName V3
SYMATTR Value SINE(0 100m 1k 0 0 0 0)
TEXT 792 -96 Left 2 ;BNC Cable
TEXT 1048 -240 Left 7 ;Reciever
TEXT 248 -192 Left 7 ;Transmitter
TEXT 760 -72 Left 2 ;(Eventually Antenna)
TEXT 472 240 Left 2 !.tran 0 10m 0 100u
