Version 4.1
SHEET 1 948 680
WIRE 208 -112 32 -112
WIRE 480 -112 272 -112
WIRE 480 -96 480 -112
WIRE 192 32 160 32
WIRE 288 32 272 32
WIRE 480 32 480 -16
WIRE 32 144 32 -112
WIRE 32 144 -32 144
WIRE 64 144 32 144
WIRE 160 144 160 32
WIRE 160 144 144 144
WIRE 192 144 160 144
WIRE -32 160 -32 144
WIRE 288 160 288 32
WIRE 288 160 256 160
WIRE 320 160 288 160
WIRE 480 160 480 112
WIRE 480 160 320 160
WIRE 576 160 480 160
WIRE 896 160 896 128
WIRE 192 176 112 176
WIRE 480 208 480 160
WIRE 112 304 112 176
WIRE 112 304 64 304
WIRE 160 304 112 304
WIRE 320 304 320 160
WIRE 320 304 304 304
WIRE 64 320 64 304
WIRE 112 320 112 304
WIRE 480 384 480 288
WIRE 64 400 64 384
WIRE 112 400 64 400
WIRE 112 416 112 400
WIRE 32 512 32 144
WIRE 192 512 32 512
WIRE 480 512 480 464
WIRE 480 512 256 512
FLAG 576 160 out
IOPIN 576 160 Out
FLAG 224 128 V+
IOPIN 224 128 BiDir
FLAG 480 -112 V+
IOPIN 480 -112 BiDir
FLAG 224 192 V-
IOPIN 224 192 BiDir
FLAG 480 512 V-
IOPIN 480 512 BiDir
FLAG 112 416 Gnd
IOPIN 112 416 BiDir
FLAG -32 240 Gnd
IOPIN -32 240 BiDir
FLAG 720 80 V+
IOPIN 720 80 BiDir
FLAG 816 80 V-
IOPIN 816 80 BiDir
FLAG 816 160 0
FLAG 720 160 0
FLAG 896 160 0
FLAG 896 128 Gnd
IOPIN 896 128 BiDir
SYMBOL res 48 160 R270
WINDOW 0 32 56 VTop 2
WINDOW 3 0 56 VBottom 2
SYMATTR InstName R1
SYMATTR Value 40k
SYMBOL res 176 48 R270
WINDOW 0 32 56 VTop 2
WINDOW 3 0 56 VBottom 2
SYMATTR InstName R2
SYMATTR Value 80k
SYMBOL cap 160 320 R270
WINDOW 0 32 32 VTop 2
WINDOW 3 0 32 VBottom 2
SYMATTR InstName C_1
SYMATTR Value 1µ
SYMBOL res 208 320 R270
WINDOW 0 32 56 VTop 2
WINDOW 3 0 56 VBottom 2
SYMATTR InstName R_1
SYMATTR Value 40k
SYMBOL res 96 304 R0
SYMATTR InstName R_2
SYMATTR Value 40k
SYMBOL cap 48 320 R0
SYMATTR InstName C_2
SYMATTR Value 1µ
SYMBOL diode 208 -96 R270
WINDOW 0 32 32 VTop 2
WINDOW 3 0 32 VBottom 2
SYMATTR InstName D1
SYMBOL diode 256 496 R90
WINDOW 0 0 32 VBottom 2
WINDOW 3 32 32 VTop 2
SYMATTR InstName D2
SYMBOL voltage -32 144 R0
WINDOW 3 -148 91 Left 2
WINDOW 123 0 0 Left 0
WINDOW 39 0 0 Left 0
SYMATTR Value PWL(0 0 1m 1m 2m 0)
SYMATTR InstName V1
SYMBOL res 464 -112 R0
SYMATTR InstName R3_2
SYMATTR Value 1k
SYMBOL res 464 16 R0
SYMATTR InstName R4_2
SYMATTR Value 1k
SYMBOL res 464 192 R0
SYMATTR InstName R4_1
SYMATTR Value 1k
SYMBOL res 464 368 R0
SYMATTR InstName R3_1
SYMATTR Value 1k
SYMBOL voltage 720 64 R0
SYMATTR InstName V2
SYMATTR Value 12
SYMBOL voltage 816 64 R0
SYMATTR InstName V3
SYMATTR Value -12
SYMBOL OpAmps\\OP27 224 96 R0
SYMATTR InstName U1
TEXT -192 312 Left 2 ;votlage source is only needed \nto start the circuit in spice, \nnot needed on breadboard
TEXT 224 432 Left 2 !.tran 0 1 2m 100u
